Version 4
SHEET 1 3440 776
WIRE -64 -336 -288 -336
WIRE 528 -336 336 -336
WIRE -288 -288 -288 -336
WIRE 528 -272 528 -336
WIRE 336 -176 336 -256
WIRE -64 -96 -64 -256
WIRE 288 -96 -64 -96
WIRE -64 32 -64 -96
WIRE 80 32 -64 32
WIRE 336 32 336 -80
WIRE 336 32 144 32
WIRE 464 32 336 32
WIRE 560 32 464 32
WIRE 624 32 560 32
WIRE 560 112 560 32
WIRE 624 112 560 112
WIRE -64 176 -64 32
WIRE 1232 176 1168 176
WIRE 1344 176 1232 176
WIRE 1520 176 1344 176
WIRE 1680 176 1520 176
WIRE 1824 176 1680 176
WIRE 464 192 464 32
WIRE 1344 224 1344 176
WIRE 1520 224 1520 176
WIRE 1680 224 1680 176
WIRE 1232 256 1232 176
WIRE 1232 256 1168 256
WIRE 864 336 864 320
WIRE 864 368 864 336
WIRE 960 368 960 336
WIRE 960 368 864 368
WIRE -64 384 -64 256
WIRE 464 384 464 256
WIRE 736 384 736 336
WIRE 736 384 608 384
WIRE 864 384 864 368
WIRE 1344 400 1344 288
WIRE 1520 400 1520 288
WIRE 1680 400 1680 288
WIRE 736 416 736 384
WIRE 608 432 608 384
WIRE 608 576 608 496
WIRE 736 576 736 496
WIRE 736 576 608 576
WIRE 736 640 736 576
WIRE 560 736 560 112
WIRE 1088 736 1088 336
WIRE 1088 736 560 736
FLAG -64 384 0
FLAG 464 384 0
FLAG 864 384 0
FLAG 1344 400 0
FLAG 1680 400 0
FLAG 528 -272 0
FLAG -288 -288 0
FLAG 736 640 0
FLAG 1520 400 0
DATAFLAG -64 -208 ""
DATAFLAG 336 -224 ""
DATAFLAG 400 32 ""
DATAFLAG 512 32 ""
DATAFLAG 1296 176 ""
DATAFLAG 272 -96 ""
DATAFLAG -16 32 ""
DATAFLAG 400 32 ""
DATAFLAG 1776 176 ""
DATAFLAG 336 -48 ""
SYMBOL voltage 336 -240 R180
WINDOW 123 0 0 Left 0
WINDOW 39 0 0 Left 0
SYMATTR InstName V2
SYMATTR Value 0
SYMBOL pmos 288 -176 R0
SYMATTR InstName M1
SYMATTR Value AO6407
SYMBOL schottky 80 48 R270
WINDOW 0 32 32 VTop 2
WINDOW 3 0 32 VBottom 2
SYMATTR InstName D1
SYMATTR Value 1N5817
SYMBOL res -80 160 R0
SYMATTR InstName R1
SYMATTR Value 100k
SYMATTR SpiceLine tol=1 pwr=0.1
SYMBOL polcap 448 192 R0
WINDOW 3 24 56 Left 2
SYMATTR Value 10µ
SYMATTR InstName C1
SYMATTR Description Capacitor
SYMATTR Type cap
SYMATTR SpiceLine V=20 Irms=290m Rser=1 Lser=0 mfg="Vishay" pn="593D106M020B" type="Tantalum"
SYMBOL cap 1328 224 R0
SYMATTR InstName C2
SYMATTR Value 100µ
SYMATTR SpiceLine V=6.3 Irms=0 Rser=0 Lser=0 mfg="Murata" pn="GRM31CR60J107KE39" type="X5R"
SYMBOL cap 1664 224 R0
SYMATTR InstName C3
SYMATTR Value 1µ
SYMATTR SpiceLine V=4 Irms=0 Rser=0 Lser=0 mfg="Murata" pn="GRM032R60G105ME05" type="X5R"
SYMBOL PowerProducts\\LT3041 864 176 R0
SYMATTR InstName U1
SYMBOL res 720 400 R0
SYMATTR InstName R2
SYMATTR Value 33.2K
SYMATTR SpiceLine tol=1 pwr=0.1
SYMBOL cap 592 432 R0
SYMATTR InstName C4
SYMATTR Value 0.47µ
SYMATTR SpiceLine V=4 Irms=3.38 Rser=0.0190129 Lser=0 mfg="KEMET" pn="C0805C474K7PAC" type="X5R"
SYMBOL cap 1504 224 R0
SYMATTR InstName C5
SYMATTR Value 10µ
SYMATTR SpiceLine V=16 Irms=0 Rser=0 Lser=0 mfg="Murata" pn="GRM21BR61C106ME15" type="X5R"
SYMBOL voltage -64 -240 R180
WINDOW 0 24 96 Left 2
WINDOW 3 24 16 Left 2
WINDOW 123 0 0 Left 0
WINDOW 39 0 0 Left 0
SYMATTR InstName V1
SYMATTR Value 5
TEXT -312 744 Left 2 !.tran 0 10 0 0.1
