Version 4
SHEET 1 1696 984
WIRE 288 464 160 464
WIRE 368 464 288 464
WIRE 512 464 368 464
WIRE 560 464 512 464
WIRE 672 464 640 464
WIRE 736 464 672 464
WIRE 864 464 800 464
WIRE 976 464 864 464
WIRE 1040 464 976 464
WIRE 1136 464 1104 464
WIRE 1168 464 1136 464
WIRE 1376 464 1168 464
WIRE 160 480 160 464
WIRE 288 480 288 464
WIRE 976 480 976 464
WIRE 1376 480 1376 464
WIRE 864 496 864 464
WIRE 1136 512 1136 464
WIRE 512 560 512 464
WIRE 672 560 672 464
WIRE 160 576 160 560
WIRE 288 576 288 544
WIRE 1168 576 1168 560
WIRE 1376 640 1376 560
WIRE 368 656 368 464
WIRE 432 656 368 656
WIRE 864 656 864 576
WIRE 864 656 752 656
WIRE 976 656 976 544
WIRE 1136 656 1136 576
WIRE 864 672 864 656
WIRE 592 768 592 752
WIRE 864 768 864 752
FLAG 1168 464 OUT
FLAG 864 768 0
FLAG 592 768 0
FLAG 160 576 0
FLAG 288 576 0
FLAG 160 464 IN
FLAG 976 656 0
FLAG 1136 656 0
FLAG 1376 640 0
SYMBOL VOLTAGE 160 464 R0
WINDOW 123 0 0 Left 0
WINDOW 39 0 0 Left 0
SYMATTR InstName V1
SYMATTR Value 5
SYMBOL RES 848 480 R0
SYMATTR InstName R1
SYMATTR Value 70.2K
SYMBOL RES 848 656 R0
SYMATTR InstName R2
SYMATTR Value 10K
SYMBOL ind 544 480 R270
WINDOW 0 32 56 VTop 2
WINDOW 3 5 56 VBottom 2
SYMATTR InstName L1
SYMATTR Value 2.7µ
SYMATTR SpiceLine Rser=0.182
SYMBOL SCHOTTKY 736 480 R270
WINDOW 0 32 32 VTop 2
WINDOW 3 0 32 VBottom 2
SYMATTR InstName D1
SYMATTR Value 1N5817
SYMBOL PowerProducts\\LT1935 592 656 R0
SYMATTR InstName U1
SYMBOL res 1360 464 R0
SYMATTR InstName Rload
SYMATTR Value 5
SYMBOL cap 272 480 R0
SYMATTR InstName C1
SYMATTR Value 4.7µ
SYMBOL cap 960 480 R0
SYMATTR InstName C4
SYMATTR Value 10µ
SYMBOL SCHOTTKY 1040 480 R270
WINDOW 0 32 32 VTop 2
WINDOW 3 0 32 VBottom 2
SYMATTR InstName D2
SYMATTR Value 1N5817
SYMBOL cap 1120 512 R0
SYMATTR InstName C2
SYMATTR Value 10µ
TEXT 936 768 Left 2 !.tran 2m
TEXT 680 408 Bottom 2 ;LT1935 - 1.2MHz Boost DC/DC Converter in ThinSOT with 2A Switch\n5V Boost Converter\nInput: 2.5V to 4.8V      Output: 5V @ 1A (Vin=3.3V) or 0.6A (Vin=2.5V)
TEXT 40 792 Left 2 ;Notes:\n  If the simulation model is not found please update with the "Sync Release" command from the "Tools" menu.\n  It remains the customer's responsibility to verify proper and reliable operation in the actual application.\n  Component substitution and printed circuit board layout may significantly affect circuit performance or reliability.\n  Contact your local sales representative for assistance. This circuit is distributed to customers only for use with LTC parts.\n  Copyright © 2013 Linear Technology Inc. All rights reserved.
